BES/WECC240.m
function mpc = WECC240
mpc.version = "2";
mpc.baseMVA = 100.0;

%% bus data
%	bus_i type Pd Qd Gs Bs area Vm Va baseKV zone Vmax Vmin
mpc.bus = [
     1  1     0.000     0.000     0.000     0.000   1  1.0000  0.0000 500.000   1  1.100  0.900;
     2  1   223.710   583.546     0.000     0.000   1  1.0000  0.0000 345.000   1  1.100  0.900;
     3  1  2212.664  -387.354     0.000     0.000   1  1.0000  0.0000 230.000   1  1.100  0.900;
     4  1  1007.718    -5.204     0.000     0.000   1  1.0000  0.0000 345.000   1  1.100  0.900;
     5  2     0.000     0.000     0.000     0.000   1  1.0000  0.0000  20.000   1  1.100  0.900;
     6  2     0.000     0.000     0.000     0.000   1  1.0000  0.0000  20.000   1  1.100  0.900;
     7  1  4482.541   134.344     0.000     0.000   1  1.0000  0.0000 500.000   1  1.100  0.900;
     8  1   179.873   -23.907     0.000     0.000   1  1.0000  0.0000 345.000   1  1.100  0.900;
     9  2     0.000     0.000     0.000     0.000   1  1.0000  0.0000  20.000   1  1.100  0.900;
    10  1   153.984     1.711     0.000     0.000   1  1.0000  0.0000 500.000   1  1.100  0.900;
    11  1   810.750  -246.169     0.000     0.000   1  1.0000  0.0000 500.000   1  1.100  0.900;
    12  2     0.000     0.000     0.000     0.000   1  1.0000  0.0000  20.000   1  1.100  0.900;
    13  1  2588.305  -323.093     0.000     0.000   1  1.0000  0.0000 500.000   1  1.100  0.900;
    14  1    17.088    -2.183     0.000     0.000   1  1.0000  0.0000 500.000   1  1.100  0.900;
    15  1  6204.116  -805.276     0.000     0.000   1  1.0000  0.0000 345.000   1  1.100  0.900;
    16  2     0.000     0.000     0.000     0.000   1  1.0000  0.0000  20.000   1  1.100  0.900;
    17  2     0.000     0.000     0.000     0.000   1  1.0000  0.0000  20.000   1  1.100  0.900;
    18  1  6314.529 -1423.225     0.000     0.000   1  1.0000  0.0000 500.000   1  1.100  0.900;
    19  1  5074.202   536.538     0.000     0.000   1  1.0000  0.0000 500.000   1  1.100  0.900;
    20  1     0.000     0.000     0.000     0.000   1  1.0000  0.0000 230.000   1  1.100  0.900;
    21  2     0.000     0.000     0.000     0.000   1  1.0000  0.0000  20.000   1  1.100  0.900;
    22  1  2207.188  -287.916     0.000     0.000   1  1.0000  0.0000 230.000   1  1.100  0.900;
    23  2     0.000     0.000     0.000     0.000   1  1.0000  0.0000  20.000   1  1.100  0.900;
    24  1   244.479   -46.066     0.000     0.000   1  1.0000  0.0000 230.000   1  1.100  0.900;
    25  2     0.000     0.000     0.000     0.000   1  1.0000  0.0000  20.000   1  1.100  0.900;
    26  1     0.000     0.000     0.000     0.000   1  1.0000  0.0000 500.000   1  1.100  0.900;
    27  1  1413.957  -249.625     0.000     0.000   1  1.0000  0.0000 230.000   1  1.100  0.900;
    28  1  1530.047  -247.960     0.000     0.000   1  1.0000  0.0000 230.000   1  1.100  0.900;
    29  2     0.000     0.000     0.000     0.000   1  1.0000  0.0000  20.000   1  1.100  0.900;
    30  1     0.000     0.000     0.000     0.000   1  1.0000  0.0000 500.000   1  1.100  0.900;
    31  1     0.000     0.000     0.000     0.000   1  1.0000  0.0000 230.000   1  1.100  0.900;
    32  2     0.000     0.000     0.000     0.000   1  1.0000  0.0000  20.000   1  1.100  0.900;
    33  1   741.606   -65.877     0.000     0.000   1  1.0000  0.0000 500.000   1  1.100  0.900;
    34  1   756.558   -85.945     0.000     0.000   1  1.0000  0.0000 500.000   1  1.100  0.900;
    35  1   944.185   -69.616     0.000     0.000   1  1.0000  0.0000 500.000   1  1.100  0.900;
    36  1   924.912   -33.229     0.000     0.000   1  1.0000  0.0000 500.000   1  1.100  0.900;
    37  1     0.000     0.000     0.000     0.000   1  1.0000  0.0000 500.000   1  1.100  0.900;
    38  1   734.331   -20.175     0.000     0.000   1  1.0000  0.0000 230.000   1  1.100  0.900;
    39  1   659.215    36.185     0.000     0.000   1  1.0000  0.0000 230.000   1  1.100  0.900;
    40  1  1610.419    35.064     0.000     0.000   1  1.0000  0.0000 230.000   1  1.100  0.900;
    41  1  1554.955    64.200     0.000     0.000   1  1.0000  0.0000 230.000   1  1.100  0.900;
    42  1  1413.334    74.998     0.000     0.000   1  1.0000  0.0000 230.000   1  1.100  0.900;
    43  1  1411.456   -51.802     0.000     0.000   1  1.0000  0.0000 230.000   1  1.100  0.900;
    44  1   959.465   -65.677     0.000     0.000   1  1.0000  0.0000 230.000   1  1.100  0.900;
    45  2     0.000     0.000     0.000     0.000   1  1.0000  0.0000  20.000   1  1.100  0.900;
    46  2     0.000     0.000     0.000     0.000   1  1.0000  0.0000  20.000   1  1.100  0.900;
    47  3     0.000     0.000     0.000     0.000   1  1.0000  0.0000  20.000   1  1.100  0.900;
    48  2     0.000     0.000     0.000     0.000   1  1.0000  0.0000  20.000   1  1.100  0.900;
    49  1     0.000     0.000     0.000     0.000   1  1.0000  0.0000 500.000   1  1.100  0.900;
    50  1  2087.843    79.306     0.000     0.000   1  1.0000  0.0000 230.000   1  1.100  0.900;
    51  1  1646.515  -178.564     0.000     0.000   1  1.0000  0.0000 230.000   1  1.100  0.900;
    52  2     0.000     0.000     0.000     0.000   1  1.0000  0.0000  20.000   1  1.100  0.900;
    53  1 -1591.978     0.000     0.000     0.000   1  1.0000  0.0000 500.000   1  1.100  0.900;
    54  1     0.000     0.000     0.000     0.000   1  1.0000  0.0000 500.000   1  1.100  0.900;
    55  1    87.531   -11.190     0.000     0.000   1  1.0000  0.0000 500.000   1  1.100  0.900;
    56  1     0.000     0.000     0.000     0.000   1  1.0000  0.0000 500.000   1  1.100  0.900;
    57  1  1791.945     0.000     0.000     0.000   1  1.0000  0.0000 345.000   1  1.100  0.900;
    58  1     0.000     0.000     0.000     0.000   1  1.0000  0.0000 287.000   1  1.100  0.900;
    59  1     0.000     0.000     0.000     0.000   1  1.0000  0.0000 287.000   1  1.100  0.900;
    60  1     0.000     0.000     0.000     0.000   1  1.0000  0.0000 287.000   1  1.100  0.900;
    61  1    88.030   -11.318     0.000     0.000   1  1.0000  0.0000 230.000   1  1.100  0.900;
    62  1   120.790   -24.191     0.000     0.000   1  1.0000  0.0000 230.000   1  1.100  0.900;
    63  1    88.994   -11.567     0.000     0.000   1  1.0000  0.0000 230.000   1  1.100  0.900;
    64  1    88.030   -11.318     0.000     0.000   1  1.0000  0.0000 230.000   1  1.100  0.900;
    65  1   106.667   -21.743     0.000     0.000   1  1.0000  0.0000 230.000   1  1.100  0.900;
    66  1   287.725   -58.812     0.000     0.000   1  1.0000  0.0000 230.000   1  1.100  0.900;
    67  1   123.152   -24.956     0.000     0.000   1  1.0000  0.0000 230.000   1  1.100  0.900;
    68  1   718.654  -117.014     0.000     0.000   1  1.0000  0.0000 230.000   1  1.100  0.900;
    69  1   104.990   -21.629     0.000     0.000   1  1.0000  0.0000 230.000   1  1.100  0.900;
    70  1   108.473   -22.485     0.000     0.000   1  1.0000  0.0000 230.000   1  1.100  0.900;
    71  1   784.705     5.422     0.000     0.000   1  1.0000  0.0000 230.000   1  1.100  0.900;
    72  1 -2466.528     0.000     0.000     0.000   1  1.0000  0.0000 230.000   1  1.100  0.900;
    73  1   181.756   -15.454     0.000     0.000   1  1.0000  0.0000 230.000   1  1.100  0.900;
    74  1   209.415    55.132     0.000     0.000   1  1.0000  0.0000 138.000   1  1.100  0.900;
    75  2     0.000     0.000     0.000     0.000   1  1.0000  0.0000  20.000   1  1.100  0.900;
    76  2     0.000     0.000     0.000     0.000   1  1.0000  0.0000  20.000   1  1.100  0.900;
    77  2     0.000     0.000     0.000     0.000   1  1.0000  0.0000  20.000   1  1.100  0.900;
    78  2     0.000     0.000     0.000     0.000   1  1.0000  0.0000  20.000   1  1.100  0.900;
    79  2     0.000     0.000     0.000     0.000   1  1.0000  0.0000  20.000   1  1.100  0.900;
    80  1     0.000     0.000     0.000     0.000   1  1.0000  0.0000 500.000   1  1.100  0.900;
    81  1     0.000     0.000     0.000     0.000   1  1.0000  0.0000 500.000   1  1.100  0.900;
    82  1   313.580   -49.549     0.000     0.000   1  1.0000  0.0000 230.000   1  1.100  0.900;
    83  1   145.724   -23.131     0.000     0.000   1  1.0000  0.0000 230.000   1  1.100  0.900;
    84  1   380.419   -54.591     0.000     0.000   1  1.0000  0.0000 230.000   1  1.100  0.900;
    85  1   283.512   -37.304     0.000     0.000   1  1.0000  0.0000 115.000   1  1.100  0.900;
    86  1   215.372   -44.182     0.000     0.000   1  1.0000  0.0000 115.000   1  1.100  0.900;
    87  2     0.000     0.000     0.000     0.000   1  1.0000  0.0000  20.000   1  1.100  0.900;
    88  2     0.000     0.000     0.000     0.000   1  1.0000  0.0000  20.000   1  1.100  0.900;
    89  1   417.176   -88.465     0.000     0.000   1  1.0000  0.0000 230.000   1  1.100  0.900;
    90  1   528.943   -75.520     0.000     0.000   1  1.0000  0.0000 230.000   1  1.100  0.900;
    91  1   592.543  -143.183     0.000     0.000   1  1.0000  0.0000 230.000   1  1.100  0.900;
    92  1   595.949   -84.091     0.000     0.000   1  1.0000  0.0000 230.000   1  1.100  0.900;
    93  1   492.201   -70.216     0.000     0.000   1  1.0000  0.0000 230.000   1  1.100  0.900;
    94  2     0.000     0.000     0.000     0.000   1  1.0000  0.0000  20.000   1  1.100  0.900;
    95  1     0.000     0.000     0.000     0.000   1  1.0000  0.0000 500.000   1  1.100  0.900;
    96  1   316.377   -80.011     0.000     0.000   1  1.0000  0.0000 230.000   1  1.100  0.900;
    97  1   562.870  -135.643     0.000     0.000   1  1.0000  0.0000 230.000   1  1.100  0.900;
    98  1   485.777  -112.963     0.000     0.000   1  1.0000  0.0000 230.000   1  1.100  0.900;
    99  1   389.689   -55.787     0.000     0.000   1  1.0000  0.0000 230.000   1  1.100  0.900;
   100  2     0.000     0.000     0.000     0.000   1  1.0000  0.0000  20.000   1  1.100  0.900;
   101  1   523.259  -132.931     0.000     0.000   1  1.0000  0.0000 230.000   1  1.100  0.900;
   102  1     0.000     0.000     0.000     0.000   1  1.0000  0.0000 230.000   1  1.100  0.900;
   103  1   464.372   -66.225     0.000     0.000   1  1.0000  0.0000 230.000   1  1.100  0.900;
   104  1   400.370   -57.509     0.000     0.000   1  1.0000  0.0000 230.000   1  1.100  0.900;
   105  1   423.026   -62.878     0.000     0.000   1  1.0000  0.0000 230.000   1  1.100  0.900;
   106  2     0.000     0.000     0.000     0.000   1  1.0000  0.0000  20.000   1  1.100  0.900;
   107  2     0.000     0.000     0.000     0.000   1  1.0000  0.0000  20.000   1  1.100  0.900;
   108  1   562.514   -80.114     0.000     0.000   1  1.0000  0.0000 230.000   1  1.100  0.900;
   109  2     0.000     0.000     0.000     0.000   1  1.0000  0.0000  20.000   1  1.100  0.900;
   110  1    92.975   -12.968     0.000     0.000   1  1.0000  0.0000 115.000   1  1.100  0.900;
   111  2     0.000     0.000     0.000     0.000   1  1.0000  0.0000  20.000   1  1.100  0.900;
   112  1   317.051   -15.847     0.000     0.000   1  1.0000  0.0000 115.000   1  1.100  0.900;
   113  2     0.000     0.000     0.000     0.000   1  1.0000  0.0000  20.000   1  1.100  0.900;
   114  1   164.062   -38.776     0.000     0.000   1  1.0000  0.0000 500.000   1  1.100  0.900;
   115  1     0.000     0.000     0.000     0.000   1  1.0000  0.0000 500.000   1  1.100  0.900;
   116  1     0.000     0.000     0.000     0.000   1  1.0000  0.0000 500.000   1  1.100  0.900;
   117  1   201.824   -50.058     0.000     0.000   1  1.0000  0.0000 230.000   1  1.100  0.900;
   118  1   434.251  -137.035     0.000     0.000   1  1.0000  0.0000 230.000   1  1.100  0.900;
   119  1   255.767   -35.854     0.000     0.000   1  1.0000  0.0000 230.000   1  1.100  0.900;
   120  2     0.000     0.000     0.000     0.000   1  1.0000  0.0000  20.000   1  1.100  0.900;
   121  2     0.000     0.000     0.000     0.000   1  1.0000  0.0000  20.000   1  1.100  0.900;
   122  2     0.000     0.000     0.000     0.000   1  1.0000  0.0000  20.000   1  1.100  0.900;
   123  1     0.000     0.000     0.000     0.000   1  1.0000  0.0000 500.000   1  1.100  0.900;
   124  1     0.000     0.000     0.000     0.000   1  1.0000  0.0000 500.000   1  1.100  0.900;
   125  1     0.000     0.000     0.000     0.000   1  1.0000  0.0000 500.000   1  1.100  0.900;
   126  1     0.000     0.000     0.000     0.000   1  1.0000  0.0000 500.000   1  1.100  0.900;
   127  1     0.000     0.000     0.000     0.000   1  1.0000  0.0000 500.000   1  1.100  0.900;
   128  1     0.000     0.000     0.000     0.000   1  1.0000  0.0000 500.000   1  1.100  0.900;
   129  1     0.000     0.000     0.000     0.000   1  1.0000  0.0000 500.000   1  1.100  0.900;
   130  1     0.000     0.000     0.000     0.000   1  1.0000  0.0000 500.000   1  1.100  0.900;
   131  1   137.692   -34.423     0.000     0.000   1  1.0000  0.0000 500.000   1  1.100  0.900;
   132  1   190.745   -26.909     0.000     0.000   1  1.0000  0.0000 500.000   1  1.100  0.900;
   133  1     0.000     0.000     0.000     0.000   1  1.0000  0.0000 500.000   1  1.100  0.900;
   134  1     0.000     0.000     0.000     0.000   1  1.0000  0.0000 500.000   1  1.100  0.900;
   135  1     0.000     0.000     0.000     0.000   1  1.0000  0.0000 500.000   1  1.100  0.900;
   136  1   430.380   -60.984     0.000     0.000   1  1.0000  0.0000 230.000   1  1.100  0.900;
   137  1   186.870   -23.908     0.000     0.000   1  1.0000  0.0000 230.000   1  1.100  0.900;
   138  1   159.388   -38.425     0.000     0.000   1  1.0000  0.0000 230.000   1  1.100  0.900;
   139  1   228.437   -34.143     0.000     0.000   1  1.0000  0.0000 230.000   1  1.100  0.900;
   140  1   204.367   -40.227     0.000     0.000   1  1.0000  0.0000 230.000   1  1.100  0.900;
   141  1   156.919     0.570     0.000     0.000   1  1.0000  0.0000 230.000   1  1.100  0.900;
   142  1   301.003   -40.262     0.000     0.000   1  1.0000  0.0000 230.000   1  1.100  0.900;
   143  1   207.245   -48.345     0.000     0.000   1  1.0000  0.0000 230.000   1  1.100  0.900;
   144  1   230.849   -48.836     0.000     0.000   1  1.0000  0.0000 230.000   1  1.100  0.900;
   145  1   139.766     0.000     0.000     0.000   1  1.0000  0.0000 230.000   1  1.100  0.900;
   146  1   214.158   -39.517     0.000     0.000   1  1.0000  0.0000 230.000   1  1.100  0.900;
   147  1   289.544   -68.957     0.000     0.000   1  1.0000  0.0000 230.000   1  1.100  0.900;
   148  1   171.670   -23.175     0.000     0.000   1  1.0000  0.0000 230.000   1  1.100  0.900;
   149  1   158.827   -22.302     0.000     0.000   1  1.0000  0.0000 230.000   1  1.100  0.900;
   150  1   126.917   -27.373     0.000     0.000   1  1.0000  0.0000 230.000   1  1.100  0.900;
   151  1   231.814   -29.670     0.000     0.000   1  1.0000  0.0000 230.000   1  1.100  0.900;
   152  1   353.452   -58.418     0.000     0.000   1  1.0000  0.0000 230.000   1  1.100  0.900;
   153  1   300.147   -42.707     0.000     0.000   1  1.0000  0.0000 230.000   1  1.100  0.900;
   154  1     0.000     0.000     0.000     0.000   1  1.0000  0.0000 115.000   1  1.100  0.900;
   155  1   244.214   -15.453     0.000     0.000   1  1.0000  0.0000 115.000   1  1.100  0.900;
   156  2     0.000     0.000     0.000     0.000   1  1.0000  0.0000  20.000   1  1.100  0.900;
   157  2     0.000     0.000     0.000     0.000   1  1.0000  0.0000  20.000   1  1.100  0.900;
   158  2     0.000     0.000     0.000     0.000   1  1.0000  0.0000  20.000   1  1.100  0.900;
   159  1     0.000     0.000     0.000   600.000   1  1.0000  0.0000 500.000   1  1.100  0.900;
   160  1   154.505   -18.455     0.000     0.000   1  1.0000  0.0000 500.000   1  1.100  0.900;
   161  1     0.000     0.000     0.000     0.000   1  1.0000  0.0000 500.000   1  1.100  0.900;
   162  1   248.180   -29.723     0.000     0.000   1  1.0000  0.0000 500.000   1  1.100  0.900;
   163  1   444.550  -134.961     0.000     0.000   1  1.0000  0.0000 500.000   1  1.100  0.900;
   164  1     0.000     0.000     0.000     0.000   1  1.0000  0.0000 500.000   1  1.100  0.900;
   165  1     0.000     0.000     0.000     0.000   1  1.0000  0.0000 500.000   1  1.100  0.900;
   166  1   265.108   -32.154     0.000     0.000   1  1.0000  0.0000 345.000   1  1.100  0.900;
   167  1  2045.132  -369.852     0.000     0.000   1  1.0000  0.0000 230.000   1  1.100  0.900;
   168  1  2904.493     0.000     0.000     0.000   1  1.0000  0.0000 230.000   1  1.100  0.900;
   169  2     0.000     0.000     0.000     0.000   1  1.0000  0.0000  20.000   1  1.100  0.900;
   170  2     0.000     0.000     0.000     0.000   1  1.0000  0.0000  20.000   1  1.100  0.900;
   171  2     0.000     0.000     0.000     0.000   1  1.0000  0.0000  20.000   1  1.100  0.900;
   172  1     0.000     0.000     0.000     0.000   1  1.0000  0.0000 500.000   1  1.100  0.900;
   173  1     0.000     0.000     0.000     0.000   1  1.0000  0.0000 500.000   1  1.100  0.900;
   174  1     0.000     0.000     0.000     0.000   1  1.0000  0.0000 500.000   1  1.100  0.900;
   175  1     0.000     0.000     0.000     0.000   1  1.0000  0.0000 500.000   1  1.100  0.900;
   176  1     0.000     0.000     0.000     0.000   1  1.0000  0.0000 500.000   1  1.100  0.900;
   177  1     0.000     0.000     0.000     0.000   1  1.0000  0.0000 500.000   1  1.100  0.900;
   178  1     0.000     0.000     0.000     0.000   1  1.0000  0.0000 500.000   1  1.100  0.900;
   179  1     0.000     0.000     0.000     0.000   1  1.0000  0.0000 500.000   1  1.100  0.900;
   180  1   882.117  -102.001     0.000     0.000   1  1.0000  0.0000 500.000   1  1.100  0.900;
   181  1   438.548   -57.162     0.000     0.000   1  1.0000  0.0000 500.000   1  1.100  0.900;
   182  1    10.805    -1.303     0.000     0.000   1  1.0000  0.0000 500.000   1  1.100  0.900;
   183  1  2424.986  -303.469     0.000     0.000   1  1.0000  0.0000 230.000   1  1.100  0.900;
   184  2     0.000     0.000     0.000     0.000   1  1.0000  0.0000  20.000   1  1.100  0.900;
   185  2     0.000     0.000     0.000     0.000   1  1.0000  0.0000  20.000   1  1.100  0.900;
   186  1  5145.231  -367.517     0.000     0.000   1  1.0000  0.0000 500.000   1  1.100  0.900;
   187  1  4300.226  -529.215     0.000     0.000   1  1.0000  0.0000 500.000   1  1.100  0.900;
   188  1  4308.429  -552.906     0.000     0.000   1  1.0000  0.0000 500.000   1  1.100  0.900;
   189  1   949.629  -115.952     0.000     0.000   1  1.0000  0.0000 500.000   1  1.100  0.900;
   190  2     0.000     0.000     0.000     0.000   1  1.0000  0.0000  20.000   1  1.100  0.900;
   191  2     0.000     0.000     0.000     0.000   1  1.0000  0.0000  20.000   1  1.100  0.900;
   192  1  7213.383 -1561.338     0.000     0.000   1  1.0000  0.0000 500.000   1  1.100  0.900;
   193  1  8534.582 -1055.106     0.000     0.000   1  1.0000  0.0000 500.000   1  1.100  0.900;
   194  1   589.263   -73.624     0.000     0.000   1  1.0000  0.0000 230.000   1  1.100  0.900;
   195  1     0.000     0.000     0.000     0.000   1  1.0000  0.0000 230.000   1  1.100  0.900;
   196  2     0.000     0.000     0.000     0.000   1  1.0000  0.0000  20.000   1  1.100  0.900;
   197  2     0.000     0.000     0.000     0.000   1  1.0000  0.0000  20.000   1  1.100  0.900;
   198  1     0.000     0.000     0.000     0.000   1  1.0000  0.0000 500.000   1  1.100  0.900;
   199  1  1022.470   325.457     0.000     0.000   1  1.0000  0.0000 345.000   1  1.100  0.900;
   200  1   386.454   -49.703     0.000     0.000   1  1.0000  0.0000 345.000   1  1.100  0.900;
...
];

%% generator data - BESMachine+BESSolar+BESWind
%	bus Pg Qg Qmax Qmin Vg mBase status Pmax Pmin Pc1 Pc2 Qc1min Qc1max Qc2min Qc2max ramp_agc ramp_10 ramp_30 ramp_q apf
mpc.gen = [
     5  712.000   -3.332  200.000 -200.000 1.0000  873.000 1  873.000    0.000 0.0 0.0 0.0 0.0 0.0 0.0 0.0 0.0 0.0 0.0 0.0;
     5  856.000   -3.332  357.000 -357.000 1.0000 1050.000 1 1050.000    0.000 0.0 0.0 0.0 0.0 0.0 0.0 0.0 0.0 0.0 0.0 0.0;
     6 1847.000  262.628  500.000 -500.000 1.0000 2100.000 1 2100.000    0.000 0.0 0.0 0.0 0.0 0.0 0.0 0.0 0.0 0.0 0.0 0.0;
     6 2565.000  262.628  918.000 -918.000 1.0000 2900.000 1 2900.000    0.000 0.0 0.0 0.0 0.0 0.0 0.0 0.0 0.0 0.0 0.0 0.0;
     9  530.000  -46.791  308.000 -308.000 1.0000 1268.000 1 1268.000    0.000 0.0 0.0 0.0 0.0 0.0 0.0 0.0 0.0 0.0 0.0 0.0;
     9 2064.000  -46.791 1916.000 -1916.000 1.0000 4934.000 1 4934.000    0.000 0.0 0.0 0.0 0.0 0.0 0.0 0.0 0.0 0.0 0.0 0.0;
    12 2728.000    0.604 1208.000 -1208.000 1.0000 4977.000 1 4977.000    0.000 0.0 0.0 0.0 0.0 0.0 0.0 0.0 0.0 0.0 0.0 0.0;
    12  657.000    0.604  628.000 -628.000 1.0000 1199.000 1 1199.000    0.000 0.0 0.0 0.0 0.0 0.0 0.0 0.0 0.0 0.0 0.0 0.0;
    16 1986.000   24.690  841.000 -841.000 1.0000 2167.000 1 2167.000    0.000 0.0 0.0 0.0 0.0 0.0 0.0 0.0 0.0 0.0 0.0 0.0;
    16 2133.000   24.690 1219.000 -1219.000 1.0000 2328.000 1 2328.000    0.000 0.0 0.0 0.0 0.0 0.0 0.0 0.0 0.0 0.0 0.0 0.0;
    17  218.000  217.320  303.000 -303.000 1.0000  418.000 1  418.000    0.000 0.0 0.0 0.0 0.0 0.0 0.0 0.0 0.0 0.0 0.0 0.0;
    17 3662.000  217.320 2746.000 -2746.000 1.0000 7011.000 1 7011.000    0.000 0.0 0.0 0.0 0.0 0.0 0.0 0.0 0.0 0.0 0.0 0.0;
    21 5129.000  409.166 3559.000 -3559.000 1.0000 9170.000 1 9170.000    0.000 0.0 0.0 0.0 0.0 0.0 0.0 0.0 0.0 0.0 0.0 0.0;
    21 1353.000  409.166 1000.000 -1000.000 1.0000 2419.000 1 2419.000    0.000 0.0 0.0 0.0 0.0 0.0 0.0 0.0 0.0 0.0 0.0 0.0;
    23  605.000  142.477  350.000 -350.000 1.0000  699.000 1  699.000    0.000 0.0 0.0 0.0 0.0 0.0 0.0 0.0 0.0 0.0 0.0 0.0;
    23 1853.000  142.477 1070.000 -1070.000 1.0000 2140.000 1 2140.000    0.000 0.0 0.0 0.0 0.0 0.0 0.0 0.0 0.0 0.0 0.0 0.0;
    25  573.000   28.722  254.000 -254.000 1.0000  831.000 1  831.000    0.000 0.0 0.0 0.0 0.0 0.0 0.0 0.0 0.0 0.0 0.0 0.0;
    25  273.000   28.722  250.000 -250.000 1.0000  396.000 1  396.000    0.000 0.0 0.0 0.0 0.0 0.0 0.0 0.0 0.0 0.0 0.0 0.0;
    25   79.000   28.722   86.000  -86.000 1.0000  115.000 1  115.000    0.000 0.0 0.0 0.0 0.0 0.0 0.0 0.0 0.0 0.0 0.0 0.0;
    29  285.000  125.466  304.000 -118.000 1.0000 1035.000 1 1035.000    0.000 0.0 0.0 0.0 0.0 0.0 0.0 0.0 0.0 0.0 0.0 0.0;
    29  506.000  125.466  611.000 -181.000 1.0000 1837.000 1 1837.000    0.000 0.0 0.0 0.0 0.0 0.0 0.0 0.0 0.0 0.0 0.0 0.0;
    29  202.000  125.466  206.000 -155.000 1.0000  733.000 1  733.000    0.000 0.0 0.0 0.0 0.0 0.0 0.0 0.0 0.0 0.0 0.0 0.0;
    47  503.000   32.102  728.000 -454.000 1.0000 2292.000 1 2292.000    0.000 0.0 0.0 0.0 0.0 0.0 0.0 0.0 0.0 0.0 0.0 0.0;
    47    0.000    0.000    0.500    0.000 1.0000  100.000 1  100.000    0.000 0.0 0.0 0.0 0.0 0.0 0.0 0.0 0.0 0.0 0.0 0.0;
    47  251.000   32.102  800.000 -800.000 1.0000 1146.000 1 1146.000    0.000 0.0 0.0 0.0 0.0 0.0 0.0 0.0 0.0 0.0 0.0 0.0;
    47  901.000   32.102 2301.000 -1053.000 1.0000 4110.000 1 4110.000    0.000 0.0 0.0 0.0 0.0 0.0 0.0 0.0 0.0 0.0 0.0 0.0;
    47  233.000   32.102  659.000 -523.000 1.0000 1460.000 1 1460.000    0.000 0.0 0.0 0.0 0.0 0.0 0.0 0.0 0.0 0.0 0.0 0.0;
    47 1276.000   32.102 1910.000 -1150.000 1.0000 5817.000 1 5817.000    0.000 0.0 0.0 0.0 0.0 0.0 0.0 0.0 0.0 0.0 0.0 0.0;
    75 2282.000  184.814 1346.000 -1346.000 1.0000 3947.000 1 3947.000    0.000 0.0 0.0 0.0 0.0 0.0 0.0 0.0 0.0 0.0 0.0 0.0;
    77 1537.000  -18.880  950.000 -950.000 1.0000 1900.000 1 1900.000    0.000 0.0 0.0 0.0 0.0 0.0 0.0 0.0 0.0 0.0 0.0 0.0;
    78   83.000   40.647  110.000 -110.000 1.0000  200.000 1  200.000    0.000 0.0 0.0 0.0 0.0 0.0 0.0 0.0 0.0 0.0 0.0 0.0;
    79  200.000    7.740  100.000 -100.000 1.0000  407.000 1  407.000    0.000 0.0 0.0 0.0 0.0 0.0 0.0 0.0 0.0 0.0 0.0 0.0;
    87   31.000  -12.551   42.000  -29.000 1.0000   80.000 1   80.000    0.000 0.0 0.0 0.0 0.0 0.0 0.0 0.0 0.0 0.0 0.0 0.0;
    87    0.000    0.000  500.000 -500.000 1.0000  300.000 1  300.000    0.000 0.0 0.0 0.0 0.0 0.0 0.0 0.0 0.0 0.0 0.0 0.0;
    88  206.000   42.757  239.000 -201.000 1.0000  541.000 1  541.000    0.000 0.0 0.0 0.0 0.0 0.0 0.0 0.0 0.0 0.0 0.0 0.0;
    88   14.000   42.757  100.000  -85.000 1.0000   38.000 1   38.000    0.000 0.0 0.0 0.0 0.0 0.0 0.0 0.0 0.0 0.0 0.0 0.0;
    94  104.000  101.000  101.000  -75.000 1.0000  177.000 1  177.000    0.000 0.0 0.0 0.0 0.0 0.0 0.0 0.0 0.0 0.0 0.0 0.0;
    94 2261.000  118.878 1244.000 -1234.000 1.0000 3853.000 1 3853.000    0.000 0.0 0.0 0.0 0.0 0.0 0.0 0.0 0.0 0.0 0.0 0.0;
    94  608.000  118.878  382.000 -212.000 1.0000 1037.000 1 1037.000    0.000 0.0 0.0 0.0 0.0 0.0 0.0 0.0 0.0 0.0 0.0 0.0;
   100  620.000   81.668  398.000 -226.000 1.0000 1012.000 1 1012.000    0.000 0.0 0.0 0.0 0.0 0.0 0.0 0.0 0.0 0.0 0.0 0.0;
   100  191.000   81.668  202.000 -143.000 1.0000  312.000 1  312.000    0.000 0.0 0.0 0.0 0.0 0.0 0.0 0.0 0.0 0.0 0.0 0.0;
   106    0.000    0.000 1568.000 -941.000 1.0000 3746.000 1 3746.000    0.000 0.0 0.0 0.0 0.0 0.0 0.0 0.0 0.0 0.0 0.0 0.0;
   107  481.000   25.641  231.000 -175.000 1.0000  921.000 1  921.000    0.000 0.0 0.0 0.0 0.0 0.0 0.0 0.0 0.0 0.0 0.0 0.0;
   109  783.000   30.853 1004.000 -599.000 1.0000 1424.000 1 1424.000    0.000 0.0 0.0 0.0 0.0 0.0 0.0 0.0 0.0 0.0 0.0 0.0;
   109  293.000   30.853  253.000 -181.000 1.0000  533.000 1  533.000    0.000 0.0 0.0 0.0 0.0 0.0 0.0 0.0 0.0 0.0 0.0 0.0;
   109   13.000   13.000   13.000  -10.000 1.0000   24.000 1   24.000    0.000 0.0 0.0 0.0 0.0 0.0 0.0 0.0 0.0 0.0 0.0 0.0;
   111   30.000  -14.000   20.000  -14.000 1.0000   96.000 1   96.000    0.000 0.0 0.0 0.0 0.0 0.0 0.0 0.0 0.0 0.0 0.0 0.0;
   111   67.000  -33.095   74.000  -34.000 1.0000  210.000 1  210.000    0.000 0.0 0.0 0.0 0.0 0.0 0.0 0.0 0.0 0.0 0.0 0.0;
   113  222.000 -121.000  200.000 -121.000 1.0000  400.000 1  400.000    0.000 0.0 0.0 0.0 0.0 0.0 0.0 0.0 0.0 0.0 0.0 0.0;
   120 2108.000  -40.709 1175.000 -980.000 1.0000 2323.000 1 2323.000    0.000 0.0 0.0 0.0 0.0 0.0 0.0 0.0 0.0 0.0 0.0 0.0;
   121    0.000    0.000    0.500    0.000 1.0000  100.000 1  100.000    0.000 0.0 0.0 0.0 0.0 0.0 0.0 0.0 0.0 0.0 0.0 0.0;
   121  150.000   28.865  500.000 -500.000 1.0000 1333.000 1 1333.000    0.000 0.0 0.0 0.0 0.0 0.0 0.0 0.0 0.0 0.0 0.0 0.0;
   122  679.000   -6.822  476.000 -352.000 1.0000 1497.000 1 1497.000    0.000 0.0 0.0 0.0 0.0 0.0 0.0 0.0 0.0 0.0 0.0 0.0;
   156  235.000   72.471  151.000 -115.000 1.0000  567.000 1  567.000    0.000 0.0 0.0 0.0 0.0 0.0 0.0 0.0 0.0 0.0 0.0 0.0;
   156 1212.000   72.471 1284.000 -946.000 1.0000 2875.000 1 2875.000    0.000 0.0 0.0 0.0 0.0 0.0 0.0 0.0 0.0 0.0 0.0 0.0;
   158    0.000    0.000    0.500    0.000 1.0000  100.000 1  100.000    0.000 0.0 0.0 0.0 0.0 0.0 0.0 0.0 0.0 0.0 0.0 0.0;
   158  901.970   88.652  500.000 -307.000 1.0000 1927.000 1 1927.000    0.000 0.0 0.0 0.0 0.0 0.0 0.0 0.0 0.0 0.0 0.0 0.0;
   158 1275.022   88.652 1256.000 -1041.000 1.0000 2774.000 1 2774.000    0.000 0.0 0.0 0.0 0.0 0.0 0.0 0.0 0.0 0.0 0.0 0.0;
   158  346.372   88.652  200.000 -200.000 1.0000  740.000 1  740.000    0.000 0.0 0.0 0.0 0.0 0.0 0.0 0.0 0.0 0.0 0.0 0.0;
   158  623.937   88.652  800.000 -500.000 1.0000 1333.000 1 1333.000    0.000 0.0 0.0 0.0 0.0 0.0 0.0 0.0 0.0 0.0 0.0 0.0;
   169  892.801 -168.528  502.000 -502.000 1.0000 2710.000 1 2710.000    0.000 0.0 0.0 0.0 0.0 0.0 0.0 0.0 0.0 0.0 0.0 0.0;
   169  208.800 -168.528  240.000 -240.000 1.0000  635.000 1  635.000    0.000 0.0 0.0 0.0 0.0 0.0 0.0 0.0 0.0 0.0 0.0 0.0;
   170  448.200 -122.614  307.000 -307.000 1.0000 1656.000 1 1656.000    0.000 0.0 0.0 0.0 0.0 0.0 0.0 0.0 0.0 0.0 0.0 0.0;
   170  966.600 -122.614 1836.000 -1836.000 1.0000 3572.000 1 3572.000    0.000 0.0 0.0 0.0 0.0 0.0 0.0 0.0 0.0 0.0 0.0 0.0;
   170  697.500 -122.614  800.000 -800.000 1.0000 2578.000 1 2578.000    0.000 0.0 0.0 0.0 0.0 0.0 0.0 0.0 0.0 0.0 0.0 0.0;
   171   77.400  102.000  102.000 -102.000 1.0000  150.000 1  150.000    0.000 0.0 0.0 0.0 0.0 0.0 0.0 0.0 0.0 0.0 0.0 0.0;
   171 1455.300  380.224 1459.000 -1459.000 1.0000 2839.000 1 2839.000    0.000 0.0 0.0 0.0 0.0 0.0 0.0 0.0 0.0 0.0 0.0 0.0;
   184  450.000  150.000  150.000 -150.000 1.0000  711.000 1  711.000    0.000 0.0 0.0 0.0 0.0 0.0 0.0 0.0 0.0 0.0 0.0 0.0;
   184 7418.700  543.401 6482.000 -6482.000 1.0000 12613.000 1 12613.000    0.000 0.0 0.0 0.0 0.0 0.0 0.0 0.0 0.0 0.0 0.0 0.0;
   185 1854.899   52.261 1473.000 -1473.000 1.0000 2170.000 1 2170.000    0.000 0.0 0.0 0.0 0.0 0.0 0.0 0.0 0.0 0.0 0.0 0.0;
   185 3835.801   52.261 2847.000 -2847.000 1.0000 5539.000 1 5539.000    0.000 0.0 0.0 0.0 0.0 0.0 0.0 0.0 0.0 0.0 0.0 0.0;
   185  270.000   52.261  160.000 -160.000 1.0000  400.000 1  400.000    0.000 0.0 0.0 0.0 0.0 0.0 0.0 0.0 0.0 0.0 0.0 0.0;
   190  999.000  485.229  728.000 -728.000 1.0000 1460.000 1 1460.000    0.000 0.0 0.0 0.0 0.0 0.0 0.0 0.0 0.0 0.0 0.0 0.0;
   190  664.200  485.229  659.000 -659.000 1.0000  970.000 1  970.000    0.000 0.0 0.0 0.0 0.0 0.0 0.0 0.0 0.0 0.0 0.0 0.0;
   190 2406.601  485.229 1808.000 -1808.000 1.0000 3517.000 1 3517.000    0.000 0.0 0.0 0.0 0.0 0.0 0.0 0.0 0.0 0.0 0.0 0.0;
   191  348.300   -3.607  592.000 -592.000 1.0000  872.000 1  872.000    0.000 0.0 0.0 0.0 0.0 0.0 0.0 0.0 0.0 0.0 0.0 0.0;
   191  316.800   -3.607  108.000 -108.000 1.0000  695.000 1  695.000    0.000 0.0 0.0 0.0 0.0 0.0 0.0 0.0 0.0 0.0 0.0 0.0;
   196  821.700  534.329  605.000 -605.000 1.0000 2650.000 1 2650.000    0.000 0.0 0.0 0.0 0.0 0.0 0.0 0.0 0.0 0.0 0.0 0.0;
   196 5976.000  534.329 4399.000 -4399.000 1.0000 10747.000 1 10747.000    0.000 0.0 0.0 0.0 0.0 0.0 0.0 0.0 0.0 0.0 0.0 0.0;
   197 2695.500  410.280 2200.000 -2200.000 1.0000 9636.000 1 9636.000    0.000 0.0 0.0 0.0 0.0 0.0 0.0 0.0 0.0 0.0 0.0 0.0;
   197   66.600   54.000   54.000  -54.000 1.0000  108.000 1  108.000    0.000 0.0 0.0 0.0 0.0 0.0 0.0 0.0 0.0 0.0 0.0 0.0;
   197 2701.800  410.280 2205.000 -2205.000 1.0000 4410.200 1 4410.200    0.000 0.0 0.0 0.0 0.0 0.0 0.0 0.0 0.0 0.0 0.0 0.0;
   202   45.000  -20.000   20.000  -20.000 1.0000  122.000 1  122.000    0.000 0.0 0.0 0.0 0.0 0.0 0.0 0.0 0.0 0.0 0.0 0.0;
   202 1043.100 -147.000  147.000 -147.000 1.0000 1272.000 1 1272.000    0.000 0.0 0.0 0.0 0.0 0.0 0.0 0.0 0.0 0.0 0.0 0.0;
   202  180.000  -75.000   75.000  -75.000 1.0000  395.000 1  395.000    0.000 0.0 0.0 0.0 0.0 0.0 0.0 0.0 0.0 0.0 0.0 0.0;
   208  705.150 -104.087 1256.000 -1256.000 1.0000 2488.000 1 2488.000    0.000 0.0 0.0 0.0 0.0 0.0 0.0 0.0 0.0 0.0 0.0 0.0;
   208  225.000  -70.000   70.000  -70.000 1.0000  250.000 1  250.000    0.000 0.0 0.0 0.0 0.0 0.0 0.0 0.0 0.0 0.0 0.0 0.0;
   209   90.000   49.769   64.000  -64.000 1.0000  226.000 1  226.000    0.000 0.0 0.0 0.0 0.0 0.0 0.0 0.0 0.0 0.0 0.0 0.0;
   209  280.800   49.769  195.000 -195.000 1.0000  720.000 1  720.000    0.000 0.0 0.0 0.0 0.0 0.0 0.0 0.0 0.0 0.0 0.0 0.0;
   215 2837.700  330.576 1671.000 -1671.000 1.0000 4594.000 1 4594.000    0.000 0.0 0.0 0.0 0.0 0.0 0.0 0.0 0.0 0.0 0.0 0.0;
   216 2274.300  260.575  968.000 -968.000 1.0000 3000.000 1 3000.000    0.000 0.0 0.0 0.0 0.0 0.0 0.0 0.0 0.0 0.0 0.0 0.0;
   216  295.200  260.575  330.000 -330.000 1.0000  418.000 1  418.000    0.000 0.0 0.0 0.0 0.0 0.0 0.0 0.0 0.0 0.0 0.0 0.0;
   216  259.200  260.575  406.000 -406.000 1.0000  400.000 1  400.000    0.000 0.0 0.0 0.0 0.0 0.0 0.0 0.0 0.0 0.0 0.0 0.0;
   221  194.000   74.552  283.000 -283.000 1.0000  391.000 1  391.000    0.000 0.0 0.0 0.0 0.0 0.0 0.0 0.0 0.0 0.0 0.0 0.0;
   221  372.000   59.000   59.000  -59.000 1.0000  751.000 1  751.000    0.000 0.0 0.0 0.0 0.0 0.0 0.0 0.0 0.0 0.0 0.0 0.0;
   221  679.000   74.552  536.000 -536.000 1.0000 1369.000 1 1369.000    0.000 0.0 0.0 0.0 0.0 0.0 0.0 0.0 0.0 0.0 0.0 0.0;
   232   90.000   75.000   75.000  -75.000 1.0000  275.000 1  275.000    0.000 0.0 0.0 0.0 0.0 0.0 0.0 0.0 0.0 0.0 0.0 0.0;
   232  566.100   78.734  500.000 -500.000 1.0000 1407.000 1 1407.000    0.000 0.0 0.0 0.0 0.0 0.0 0.0 0.0 0.0 0.0 0.0 0.0;
   232  157.500   20.000   20.000  -20.000 1.0000  391.000 1  391.000    0.000 0.0 0.0 0.0 0.0 0.0 0.0 0.0 0.0 0.0 0.0 0.0;
   235 1105.199  380.609 1419.000 -1419.000 1.0000 3127.000 1 3127.000    0.000 0.0 0.0 0.0 0.0 0.0 0.0 0.0 0.0 0.0 0.0 0.0;
   235 2242.802  380.609 2092.000 -2092.000 1.0000 6346.000 1 6346.000    0.000 0.0 0.0 0.0 0.0 0.0 0.0 0.0 0.0 0.0 0.0 0.0;
   235    0.000    0.000 1000.000 -1000.000 1.0000  100.000 1  100.000    0.000 0.0 0.0 0.0 0.0 0.0 0.0 0.0 0.0 0.0 0.0 0.0;
   235 1098.000  380.609 1000.000 -1000.000 1.0000 3106.000 1 3106.000    0.000 0.0 0.0 0.0 0.0 0.0 0.0 0.0 0.0 0.0 0.0 0.0;
   236 1057.500   22.012  826.000 -826.000 1.0000 1821.000 1 1821.000    0.000 0.0 0.0 0.0 0.0 0.0 0.0 0.0 0.0 0.0 0.0 0.0;
   236  390.600   22.012  346.000 -346.000 1.0000  672.000 1  672.000    0.000 0.0 0.0 0.0 0.0 0.0 0.0 0.0 0.0 0.0 0.0 0.0;
   236  428.400   22.012  230.000 -230.000 1.0000  738.000 1  738.000    0.000 0.0 0.0 0.0 0.0 0.0 0.0 0.0 0.0 0.0 0.0 0.0;
   242 1182.000  259.732  786.000 -786.000 1.0000 1394.000 1 1394.000    0.000 0.0 0.0 0.0 0.0 0.0 0.0 0.0 0.0 0.0 0.0 0.0;
   243 2946.000  239.367 1280.000 -1280.000 1.0000 3754.000 1 3754.000    0.000 0.0 0.0 0.0 0.0 0.0 0.0 0.0 0.0 0.0 0.0 0.0;
   243  427.000  239.367  344.000 -344.000 1.0000  544.000 1  544.000    0.000 0.0 0.0 0.0 0.0 0.0 0.0 0.0 0.0 0.0 0.0 0.0;
    52 1899.000  127.613 1100.000 -820.000 1.0000 1999.000 1 1999.000    0.000 0.0 0.0 0.0 0.0 0.0 0.0 0.0 0.0 0.0 0.0 0.0;
    76  232.000   32.063  350.000 -350.000 1.0000  520.000 1  520.000    0.000 0.0 0.0 0.0 0.0 0.0 0.0 0.0 0.0 0.0 0.0 0.0;
    94 1021.000  118.878  150.000 -110.000 1.0000 1740.000 1 1740.000    0.000 0.0 0.0 0.0 0.0 0.0 0.0 0.0 0.0 0.0 0.0 0.0;
   107  745.000   25.641  939.000 -562.000 1.0000 1426.000 1 1426.000    0.000 0.0 0.0 0.0 0.0 0.0 0.0 0.0 0.0 0.0 0.0 0.0;
   121  229.000   28.865  662.000 -479.000 1.0000 2025.000 1 2025.000    0.000 0.0 0.0 0.0 0.0 0.0 0.0 0.0 0.0 0.0 0.0 0.0;
   157 1355.000 -242.757 1150.000 -500.000 1.0000 1426.000 1 1426.000    0.000 0.0 0.0 0.0 0.0 0.0 0.0 0.0 0.0 0.0 0.0 0.0;
   158  404.880   88.652  363.000  -82.000 1.0000  865.000 1  865.000    0.000 0.0 0.0 0.0 0.0 0.0 0.0 0.0 0.0 0.0 0.0 0.0;
   158  161.484   77.000   77.000  -55.000 1.0000  345.000 1  345.000    0.000 0.0 0.0 0.0 0.0 0.0 0.0 0.0 0.0 0.0 0.0 0.0;
   169  313.199 -168.528  489.000 -489.000 1.0000  952.000 1  952.000    0.000 0.0 0.0 0.0 0.0 0.0 0.0 0.0 0.0 0.0 0.0 0.0;
   169  140.400 -168.528  250.000 -250.000 1.0000  427.000 1  427.000    0.000 0.0 0.0 0.0 0.0 0.0 0.0 0.0 0.0 0.0 0.0 0.0;
   170  173.700 -122.614  255.000 -255.000 1.0000  642.000 1  642.000    0.000 0.0 0.0 0.0 0.0 0.0 0.0 0.0 0.0 0.0 0.0 0.0;
   171  712.800  380.224  500.000 -500.000 1.0000 1290.000 1 1290.000    0.000 0.0 0.0 0.0 0.0 0.0 0.0 0.0 0.0 0.0 0.0 0.0;
   184  555.300  120.000  120.000 -120.000 1.0000  790.000 1  790.000    0.000 0.0 0.0 0.0 0.0 0.0 0.0 0.0 0.0 0.0 0.0 0.0;
   185  900.000   52.261  231.000 -231.000 1.0000 1200.000 1 1200.000    0.000 0.0 0.0 0.0 0.0 0.0 0.0 0.0 0.0 0.0 0.0 0.0;
   191  222.300   -3.607  287.000 -287.000 1.0000  558.000 1  558.000    0.000 0.0 0.0 0.0 0.0 0.0 0.0 0.0 0.0 0.0 0.0 0.0;
   197 3646.800  410.280 2977.000 -2977.000 1.0000 13039.000 1 13039.000    0.000 0.0 0.0 0.0 0.0 0.0 0.0 0.0 0.0 0.0 0.0 0.0;
   197  331.200  271.000  271.000 -271.000 1.0000  541.000 1  541.000    0.000 0.0 0.0 0.0 0.0 0.0 0.0 0.0 0.0 0.0 0.0 0.0;
   202 1992.599 -387.445 1072.000 -1072.000 1.0000 2541.000 1 2541.000    0.000 0.0 0.0 0.0 0.0 0.0 0.0 0.0 0.0 0.0 0.0 0.0;
   202  503.100 -210.000  210.000 -210.000 1.0000  973.000 1  973.000    0.000 0.0 0.0 0.0 0.0 0.0 0.0 0.0 0.0 0.0 0.0 0.0;
   209 1040.400   49.769  347.000 -347.000 1.0000 2671.000 1 2671.000    0.000 0.0 0.0 0.0 0.0 0.0 0.0 0.0 0.0 0.0 0.0 0.0;
   215  919.800  330.576  350.000 -350.000 1.0000 1489.000 1 1489.000    0.000 0.0 0.0 0.0 0.0 0.0 0.0 0.0 0.0 0.0 0.0 0.0;
   221   75.000   50.000   50.000  -50.000 1.0000  152.000 1  152.000    0.000 0.0 0.0 0.0 0.0 0.0 0.0 0.0 0.0 0.0 0.0 0.0;
   232 1318.501   78.734 1924.000 -1924.000 1.0000 3276.000 1 3276.000    0.000 0.0 0.0 0.0 0.0 0.0 0.0 0.0 0.0 0.0 0.0 0.0;
   232 1213.201   78.734  880.000 -880.000 1.0000 3239.000 1 3239.000    0.000 0.0 0.0 0.0 0.0 0.0 0.0 0.0 0.0 0.0 0.0 0.0;
   235  123.300  175.000  175.000 -175.000 1.0000  509.000 1  509.000    0.000 0.0 0.0 0.0 0.0 0.0 0.0 0.0 0.0 0.0 0.0 0.0;
   236  861.300   22.012  489.000 -489.000 1.0000 1483.000 1 1483.000    0.000 0.0 0.0 0.0 0.0 0.0 0.0 0.0 0.0 0.0 0.0 0.0;
     5  520.000   -3.332  360.000 -360.000 1.0000  638.000 1  638.000    0.000 0.0 0.0 0.0 0.0 0.0 0.0 0.0 0.0 0.0 0.0 0.0;
     6 1598.000  262.628  800.000 -800.000 1.0000 1682.000 1 1682.000    0.000 0.0 0.0 0.0 0.0 0.0 0.0 0.0 0.0 0.0 0.0 0.0;
    17 1266.000  217.320 1300.000 -1300.000 1.0000 2423.000 1 2423.000    0.000 0.0 0.0 0.0 0.0 0.0 0.0 0.0 0.0 0.0 0.0 0.0;
    21 2355.000  409.166 2057.000 -2057.000 1.0000 4210.000 1 4210.000    0.000 0.0 0.0 0.0 0.0 0.0 0.0 0.0 0.0 0.0 0.0 0.0;
    25  404.000   28.722  200.000 -200.000 1.0000  586.000 1  586.000    0.000 0.0 0.0 0.0 0.0 0.0 0.0 0.0 0.0 0.0 0.0 0.0;
    32  878.000   42.001  590.000 -364.000 1.0000 1333.000 1 1333.000    0.000 0.0 0.0 0.0 0.0 0.0 0.0 0.0 0.0 0.0 0.0 0.0;
    45  500.000  -46.886  800.000 -800.000 1.0000 1666.000 1 1666.000    0.000 0.0 0.0 0.0 0.0 0.0 0.0 0.0 0.0 0.0 0.0 0.0;
    46  500.000 -337.252  500.000 -500.000 1.0000 1489.000 1 1489.000    0.000 0.0 0.0 0.0 0.0 0.0 0.0 0.0 0.0 0.0 0.0 0.0;
    47 1195.999   32.102 1902.000 -1168.000 1.0000 5451.000 1 5451.000    0.000 0.0 0.0 0.0 0.0 0.0 0.0 0.0 0.0 0.0 0.0 0.0;
    47  704.000   32.102  561.000 -553.000 1.0000 3210.000 1 3210.000    0.000 0.0 0.0 0.0 0.0 0.0 0.0 0.0 0.0 0.0 0.0 0.0;
    48 1000.000 -242.186  800.000 -800.000 1.0000 1666.000 1 1666.000    0.000 0.0 0.0 0.0 0.0 0.0 0.0 0.0 0.0 0.0 0.0 0.0;
];

%% branch data - BESLine+BESCompSeries+collected transformers
%	fbus tbus r x b rateA rateB rateC ratio angle status angmin angmax
mpc.branch = [
     1    10  0.001770  0.031690  3.344600 0.0 0.0 0.0 0.0 0.0 1 0.0 0.0;
     1    11  0.010800  0.096500  0.329600 0.0 0.0 0.0 0.0 0.0 1 0.0 0.0;
     2     4  0.000500  0.005300  0.088200 0.0 0.0 0.0 0.0 0.0 1 0.0 0.0;
     2     8  0.001790  0.019880  2.576000 0.0 0.0 0.0 0.0 0.0 1 0.0 0.0;
     2     8  0.001790  0.019880  2.576000 0.0 0.0 0.0 0.0 0.0 1 0.0 0.0;
     2   227  0.004800  0.043600  0.707800 0.0 0.0 0.0 0.0 0.0 1 0.0 0.0;
     4   233  0.008110  0.136900  2.434800 0.0 0.0 0.0 0.0 0.0 1 0.0 0.0;
     4   234  0.009770  0.110000  2.000000 0.0 0.0 0.0 0.0 0.0 1 0.0 0.0;
     7    18  0.002800  0.021100  1.019400 0.0 0.0 0.0 0.0 0.0 1 0.0 0.0;
     7    18  0.002800  0.021100  1.019400 0.0 0.0 0.0 0.0 0.0 1 0.0 0.0;
    10    11  0.000770  0.005360  1.398420 0.0 0.0 0.0 0.0 0.0 1 0.0 0.0;
    10    19  0.001790  0.025920  3.392200 0.0 0.0 0.0 0.0 0.0 1 0.0 0.0;
    10    80  0.002070  0.013690  3.951600 0.0 0.0 0.0 0.0 0.0 1 0.0 0.0;
    11    14  0.002800  0.021100  1.019400 0.0 0.0 0.0 0.0 0.0 1 0.0 0.0;
    11    19  0.002410  0.034890  4.865600 0.0 0.0 0.0 0.0 0.0 1 0.0 0.0;
    13    14  0.002800  0.021100  1.019400 0.0 0.0 0.0 0.0 0.0 1 0.0 0.0;
    13    19  0.002800  0.021100  1.019400 0.0 0.0 0.0 0.0 0.0 1 0.0 0.0;
    13    19  0.006200  0.067300  1.115600 0.0 0.0 0.0 0.0 0.0 1 0.0 0.0;
    13    56  0.001790  0.025240  0.535460 0.0 0.0 0.0 0.0 0.0 1 0.0 0.0;
    13    80  0.010800  0.096500  0.329600 0.0 0.0 0.0 0.0 0.0 1 0.0 0.0;
    15   228  0.008110  0.136900  1.115600 0.0 0.0 0.0 0.0 0.0 1 0.0 0.0;
    18    19  0.000400  0.009600  0.903800 0.0 0.0 0.0 0.0 0.0 1 0.0 0.0;
    18    19  0.000400  0.009600  0.903800 0.0 0.0 0.0 0.0 0.0 1 0.0 0.0;
    18    30  0.002590  0.029670  2.153000 0.0 0.0 0.0 0.0 0.0 1 0.0 0.0;
    18    33  0.002590  0.029670  2.153000 0.0 0.0 0.0 0.0 0.0 1 0.0 0.0;
    20    24  0.008450  0.070340  0.159540 0.0 0.0 0.0 0.0 0.0 1 0.0 0.0;
    22    27  0.001380  0.053990  0.152520 0.0 0.0 0.0 0.0 0.0 1 0.0 0.0;
    22    31  0.001380  0.053990  0.152520 0.0 0.0 0.0 0.0 0.0 1 0.0 0.0;
    24    31  0.008450  0.070340  0.159540 0.0 0.0 0.0 0.0 0.0 1 0.0 0.0;
    26    30  0.001790  0.025240  2.153000 0.0 0.0 0.0 0.0 0.0 1 0.0 0.0;
    27    28  0.003120  0.028860  0.152520 0.0 0.0 0.0 0.0 0.0 1 0.0 0.0;
    27    28  0.003120  0.028860  0.152520 0.0 0.0 0.0 0.0 0.0 1 0.0 0.0;
    27    51  0.003120  0.028860  0.152520 0.0 0.0 0.0 0.0 0.0 1 0.0 0.0;
    28    51  0.003120  0.028860  0.152520 0.0 0.0 0.0 0.0 0.0 1 0.0 0.0;
    28    51  0.003120  0.028860  0.152520 0.0 0.0 0.0 0.0 0.0 1 0.0 0.0;
    33    36  0.000420  0.009050  0.667940 0.0 0.0 0.0 0.0 0.0 1 0.0 0.0;
    34    35  0.000280  0.007530  0.517360 0.0 0.0 0.0 0.0 0.0 1 0.0 0.0;
    34    35  0.000350  0.007500  0.553600 0.0 0.0 0.0 0.0 0.0 1 0.0 0.0;
    34    37  0.000440  0.011250  0.829200 0.0 0.0 0.0 0.0 0.0 1 0.0 0.0;
    34    37  0.000440  0.011250  0.829200 0.0 0.0 0.0 0.0 0.0 1 0.0 0.0;
    34    49  0.000600  0.012800  0.946200 0.0 0.0 0.0 0.0 0.0 1 0.0 0.0;
    34    56  0.000200  0.004100  0.296200 0.0 0.0 0.0 0.0 0.0 1 0.0 0.0;
    34    80  0.001930  0.027790  4.671200 0.0 0.0 0.0 0.0 0.0 1 0.0 0.0;
    34    81  0.001900  0.031000  4.140200 0.0 0.0 0.0 0.0 0.0 1 0.0 0.0;
    35    49  0.000210  0.004570  0.323360 0.0 0.0 0.0 0.0 0.0 1 0.0 0.0;
    36    49  0.000400  0.009300  0.685600 0.0 0.0 0.0 0.0 0.0 1 0.0 0.0;
    38    39  0.001400  0.026400  0.102000 0.0 0.0 0.0 0.0 0.0 1 0.0 0.0;
    38    43  0.000650  0.011870  0.046720 0.0 0.0 0.0 0.0 0.0 1 0.0 0.0;
    38    43  0.000650  0.011870  0.046720 0.0 0.0 0.0 0.0 0.0 1 0.0 0.0;
    39    41  0.001900  0.025800  0.098400 0.0 0.0 0.0 0.0 0.0 1 0.0 0.0;
    39    43  0.008450  0.070340  0.159540 0.0 0.0 0.0 0.0 0.0 1 0.0 0.0;
    40    41  0.001100  0.012700  0.048000 0.0 0.0 0.0 0.0 0.0 1 0.0 0.0;
    41    42  0.001380  0.053990  0.152520 0.0 0.0 0.0 0.0 0.0 1 0.0 0.0;
    41    42  0.001380  0.053990  0.152520 0.0 0.0 0.0 0.0 0.0 1 0.0 0.0;
    41    44  0.003200  0.039500  0.144000 0.0 0.0 0.0 0.0 0.0 1 0.0 0.0;
    41    50  0.003120  0.028860  0.152520 0.0 0.0 0.0 0.0 0.0 1 0.0 0.0;
    42    50  0.003120  0.028860  0.152520 0.0 0.0 0.0 0.0 0.0 1 0.0 0.0;
    42    51  0.003120  0.028860  0.152520 0.0 0.0 0.0 0.0 0.0 1 0.0 0.0;
    43    44  0.002850  0.036490  0.126560 0.0 0.0 0.0 0.0 0.0 1 0.0 0.0;
    43    44  0.001380  0.033990  0.112520 0.0 0.0 0.0 0.0 0.0 1 0.0 0.0;
    50    51  0.003120  0.028860  0.152520 0.0 0.0 0.0 0.0 0.0 1 0.0 0.0;
    50    51  0.003120  0.028860  0.152520 0.0 0.0 0.0 0.0 0.0 1 0.0 0.0;
    53    54  0.000740  0.018610  1.402640 0.0 0.0 0.0 0.0 0.0 1 0.0 0.0;
    53    55  0.000820  0.016680  1.188020 0.0 0.0 0.0 0.0 0.0 1 0.0 0.0;
    53    56  0.000000  0.001590  0.120020 0.0 0.0 0.0 0.0 0.0 1 0.0 0.0;
    53    56  0.000000  0.001590  0.120020 0.0 0.0 0.0 0.0 0.0 1 0.0 0.0;
    54    56  0.000830  0.018840  1.666680 0.0 0.0 0.0 0.0 0.0 1 0.0 0.0;
    56    80  0.001790  0.025240  0.535460 0.0 0.0 0.0 0.0 0.0 1 0.0 0.0;
    57   220  0.010800  0.096500  0.329600 0.0 0.0 0.0 0.0 0.0 1 0.0 0.0;
    57   225  0.001800  0.024500  0.439200 0.0 0.0 0.0 0.0 0.0 1 0.0 0.0;
    57   225  0.001800  0.024500  0.439200 0.0 0.0 0.0 0.0 0.0 1 0.0 0.0;
    58    60  0.010700  0.079050  0.366700 0.0 0.0 0.0 0.0 0.0 1 0.0 0.0;
    59    60  0.010700  0.079050  0.366700 0.0 0.0 0.0 0.0 0.0 1 0.0 0.0;
    61    64  0.002210  0.033460  0.073380 0.0 0.0 0.0 0.0 0.0 1 0.0 0.0;
    61    65  0.002900  0.038000  0.082400 0.0 0.0 0.0 0.0 0.0 1 0.0 0.0;
    61    71  0.003090  0.046770  0.100800 0.0 0.0 0.0 0.0 0.0 1 0.0 0.0;
    61    72  0.002260  0.034220  0.075060 0.0 0.0 0.0 0.0 0.0 1 0.0 0.0;
    62    68  0.000470  0.007230  0.016240 0.0 0.0 0.0 0.0 0.0 1 0.0 0.0;
    62    70  0.000350  0.005360  0.012040 0.0 0.0 0.0 0.0 0.0 1 0.0 0.0;
    63    66  0.002200  0.034220  0.077160 0.0 0.0 0.0 0.0 0.0 1 0.0 0.0;
    63    66  0.002380  0.036690  0.082840 0.0 0.0 0.0 0.0 0.0 1 0.0 0.0;
    63    69  0.002010  0.030740  0.068860 0.0 0.0 0.0 0.0 0.0 1 0.0 0.0;
    63    70  0.002810  0.042960  0.096480 0.0 0.0 0.0 0.0 0.0 1 0.0 0.0;
    64    65  0.000290  0.004340  0.009500 0.0 0.0 0.0 0.0 0.0 1 0.0 0.0;
    65    68  0.002290  0.015830  0.030600 0.0 0.0 0.0 0.0 0.0 1 0.0 0.0;
    65    68  0.002290  0.015830  0.030600 0.0 0.0 0.0 0.0 0.0 1 0.0 0.0;
    65    71  0.001410  0.009670  0.019400 0.0 0.0 0.0 0.0 0.0 1 0.0 0.0;
    65    71  0.001410  0.009670  0.019400 0.0 0.0 0.0 0.0 0.0 1 0.0 0.0;
    65    71  0.001610  0.009710  0.019280 0.0 0.0 0.0 0.0 0.0 1 0.0 0.0;
    65    71  0.001610  0.009710  0.019280 0.0 0.0 0.0 0.0 0.0 1 0.0 0.0;
    65    72  0.000270  0.003930  0.009180 0.0 0.0 0.0 0.0 0.0 1 0.0 0.0;
    65    72  0.000270  0.003930  0.009180 0.0 0.0 0.0 0.0 0.0 1 0.0 0.0;
    65    72  0.000270  0.003930  0.009180 0.0 0.0 0.0 0.0 0.0 1 0.0 0.0;
    65    73  0.001380  0.011160  0.024700 0.0 0.0 0.0 0.0 0.0 1 0.0 0.0;
    65    73  0.001380  0.011160  0.024700 0.0 0.0 0.0 0.0 0.0 1 0.0 0.0;
    66    69  0.000370  0.003660  0.008300 0.0 0.0 0.0 0.0 0.0 1 0.0 0.0;
    66    70  0.000550  0.005860  0.012460 0.0 0.0 0.0 0.0 0.0 1 0.0 0.0;
    67    69  0.000730  0.010250  0.025580 0.0 0.0 0.0 0.0 0.0 1 0.0 0.0;
    67    69  0.000730  0.010250  0.025580 0.0 0.0 0.0 0.0 0.0 1 0.0 0.0;
    68    70  0.001190  0.012440  0.027980 0.0 0.0 0.0 0.0 0.0 1 0.0 0.0;
    68    70  0.001190  0.012440  0.027980 0.0 0.0 0.0 0.0 0.0 1 0.0 0.0;
    68    73  0.001280  0.009790  0.021200 0.0 0.0 0.0 0.0 0.0 1 0.0 0.0;
    69    70  0.001100  0.011890  0.025140 0.0 0.0 0.0 0.0 0.0 1 0.0 0.0;
    80    81  0.000560  0.014150  1.042900 0.0 0.0 0.0 0.0 0.0 1 0.0 0.0;
    82    83  0.001100  0.012700  0.048000 0.0 0.0 0.0 0.0 0.0 1 0.0 0.0;
    82    83  0.001100  0.012700  0.048000 0.0 0.0 0.0 0.0 0.0 1 0.0 0.0;
    83    84  0.001100  0.012700  0.048000 0.0 0.0 0.0 0.0 0.0 1 0.0 0.0;
    83    84  0.001100  0.012700  0.048000 0.0 0.0 0.0 0.0 0.0 1 0.0 0.0;
    83    84  0.001100  0.012700  0.048000 0.0 0.0 0.0 0.0 0.0 1 0.0 0.0;
    83    96  0.001100  0.012700  0.048000 0.0 0.0 0.0 0.0 0.0 1 0.0 0.0;
    84    92  0.001100  0.012700  0.048000 0.0 0.0 0.0 0.0 0.0 1 0.0 0.0;
    84    92  0.001100  0.012700  0.048000 0.0 0.0 0.0 0.0 0.0 1 0.0 0.0;
    84    99  0.001100  0.012700  0.048000 0.0 0.0 0.0 0.0 0.0 1 0.0 0.0;
    84    99  0.001100  0.012700  0.048000 0.0 0.0 0.0 0.0 0.0 1 0.0 0.0;
    85    86  0.003120  0.028860  0.152520 0.0 0.0 0.0 0.0 0.0 1 0.0 0.0;
    89    90  0.001100  0.012700  0.048000 0.0 0.0 0.0 0.0 0.0 1 0.0 0.0;
    89    90  0.001100  0.012700  0.048000 0.0 0.0 0.0 0.0 0.0 1 0.0 0.0;
    89    91  0.001100  0.012700  0.048000 0.0 0.0 0.0 0.0 0.0 1 0.0 0.0;
    89    91  0.001100  0.012700  0.048000 0.0 0.0 0.0 0.0 0.0 1 0.0 0.0;
    89   152  0.003120  0.028860  0.152520 0.0 0.0 0.0 0.0 0.0 1 0.0 0.0;
    89   152  0.003120  0.028860  0.152520 0.0 0.0 0.0 0.0 0.0 1 0.0 0.0;
    89   153  0.001100  0.012700  0.048000 0.0 0.0 0.0 0.0 0.0 1 0.0 0.0;
    89   153  0.001100  0.012700  0.048000 0.0 0.0 0.0 0.0 0.0 1 0.0 0.0;
    90    91  0.001100  0.012700  0.048000 0.0 0.0 0.0 0.0 0.0 1 0.0 0.0;
    90    91  0.003120  0.028860  0.152520 0.0 0.0 0.0 0.0 0.0 1 0.0 0.0;
    90    92  0.001100  0.012700  0.048000 0.0 0.0 0.0 0.0 0.0 1 0.0 0.0;
    90    93  0.001100  0.012700  0.048000 0.0 0.0 0.0 0.0 0.0 1 0.0 0.0;
    90   153  0.003120  0.028860  0.152520 0.0 0.0 0.0 0.0 0.0 1 0.0 0.0;
    90   153  0.003120  0.028860  0.152520 0.0 0.0 0.0 0.0 0.0 1 0.0 0.0;
    91    92  0.001100  0.012700  0.048000 0.0 0.0 0.0 0.0 0.0 1 0.0 0.0;
    91    97  0.001100  0.012700  0.048000 0.0 0.0 0.0 0.0 0.0 1 0.0 0.0;
    91    97  0.003120  0.028860  0.152520 0.0 0.0 0.0 0.0 0.0 1 0.0 0.0;
    91    99  0.001100  0.012700  0.048000 0.0 0.0 0.0 0.0 0.0 1 0.0 0.0;
    91   152  0.003120  0.028860  0.152520 0.0 0.0 0.0 0.0 0.0 1 0.0 0.0;
    91   152  0.003120  0.028860  0.152520 0.0 0.0 0.0 0.0 0.0 1 0.0 0.0;
    92    93  0.001100  0.012700  0.048000 0.0 0.0 0.0 0.0 0.0 1 0.0 0.0;
    92    93  0.001100  0.012700  0.048000 0.0 0.0 0.0 0.0 0.0 1 0.0 0.0;
    92   152  0.003120  0.028860  0.152520 0.0 0.0 0.0 0.0 0.0 1 0.0 0.0;
    92   152  0.003120  0.028860  0.152520 0.0 0.0 0.0 0.0 0.0 1 0.0 0.0;
    93   143  0.003120  0.028860  0.152520 0.0 0.0 0.0 0.0 0.0 1 0.0 0.0;
    93   144  0.003120  0.028860  0.152520 0.0 0.0 0.0 0.0 0.0 1 0.0 0.0;
    95   131  0.000530  0.012970  0.000000 0.0 0.0 0.0 0.0 0.0 1 0.0 0.0;
    95   132  0.000500  0.008810  0.598780 0.0 0.0 0.0 0.0 0.0 1 0.0 0.0;
    96    98  0.001100  0.012700  0.048000 0.0 0.0 0.0 0.0 0.0 1 0.0 0.0;
    96    98  0.001100  0.012700  0.048000 0.0 0.0 0.0 0.0 0.0 1 0.0 0.0;
    97    98  0.001100  0.012700  0.048000 0.0 0.0 0.0 0.0 0.0 1 0.0 0.0;
    97    98  0.001100  0.012700  0.048000 0.0 0.0 0.0 0.0 0.0 1 0.0 0.0;
    97    98  0.001100  0.012700  0.048000 0.0 0.0 0.0 0.0 0.0 1 0.0 0.0;
    97   147  0.003120  0.028860  0.152520 0.0 0.0 0.0 0.0 0.0 1 0.0 0.0;
    97   147  0.003120  0.028860  0.152520 0.0 0.0 0.0 0.0 0.0 1 0.0 0.0;
    99   152  0.003120  0.028860  0.152520 0.0 0.0 0.0 0.0 0.0 1 0.0 0.0;
   101   102  0.003120  0.028860  0.152520 0.0 0.0 0.0 0.0 0.0 1 0.0 0.0;
   101   102  0.003120  0.028860  0.152520 0.0 0.0 0.0 0.0 0.0 1 0.0 0.0;
   101   104  0.003120  0.028860  0.152520 0.0 0.0 0.0 0.0 0.0 1 0.0 0.0;
   101   105  0.003120  0.028860  0.152520 0.0 0.0 0.0 0.0 0.0 1 0.0 0.0;
   101   105  0.003120  0.028860  0.152520 0.0 0.0 0.0 0.0 0.0 1 0.0 0.0;
   101   117  0.003120  0.028860  0.152520 0.0 0.0 0.0 0.0 0.0 1 0.0 0.0;
   103   104  0.003120  0.028860  0.152520 0.0 0.0 0.0 0.0 0.0 1 0.0 0.0;
   103   117  0.003120  0.028860  0.152520 0.0 0.0 0.0 0.0 0.0 1 0.0 0.0;
   104   117  0.003120  0.028860  0.152520 0.0 0.0 0.0 0.0 0.0 1 0.0 0.0;
   104   117  0.003120  0.028860  0.152520 0.0 0.0 0.0 0.0 0.0 1 0.0 0.0;
   104   146  0.003120  0.028860  0.152520 0.0 0.0 0.0 0.0 0.0 1 0.0 0.0;
   104   147  0.003120  0.028860  0.152520 0.0 0.0 0.0 0.0 0.0 1 0.0 0.0;
   105   136  0.003120  0.028860  0.152520 0.0 0.0 0.0 0.0 0.0 1 0.0 0.0;
   105   136  0.003120  0.028860  0.152520 0.0 0.0 0.0 0.0 0.0 1 0.0 0.0;
   108   143  0.003120  0.028860  0.152520 0.0 0.0 0.0 0.0 0.0 1 0.0 0.0;
   108   144  0.003120  0.028860  0.152520 0.0 0.0 0.0 0.0 0.0 1 0.0 0.0;
   110   154  0.003120  0.028860  0.152520 0.0 0.0 0.0 0.0 0.0 1 0.0 0.0;
   112   155  0.003120  0.028860  0.152520 0.0 0.0 0.0 0.0 0.0 1 0.0 0.0;
   112   155  0.003120  0.028860  0.152520 0.0 0.0 0.0 0.0 0.0 1 0.0 0.0;
   114   115  0.000790  0.019370  1.328500 0.0 0.0 0.0 0.0 0.0 1 0.0 0.0;
   114   116  0.000870  0.020870  1.457100 0.0 0.0 0.0 0.0 0.0 1 0.0 0.0;
   114   116  0.000870  0.020870  1.457100 0.0 0.0 0.0 0.0 0.0 1 0.0 0.0;
   115   123  0.000720  0.016000  1.087900 0.0 0.0 0.0 0.0 0.0 1 0.0 0.0;
   115   130  0.000830  0.019850  0.000000 0.0 0.0 0.0 0.0 0.0 1 0.0 0.0;
   116   130  0.001530  0.014700  0.000000 0.0 0.0 0.0 0.0 0.0 1 0.0 0.0;
   117   119  0.003120  0.028860  0.152520 0.0 0.0 0.0 0.0 0.0 1 0.0 0.0;
   118   119  0.003120  0.028860  0.152520 0.0 0.0 0.0 0.0 0.0 1 0.0 0.0;
   124   125  0.001230  0.026590  1.987020 0.0 0.0 0.0 0.0 0.0 1 0.0 0.0;
   126   127  0.001230  0.026620  1.988800 0.0 0.0 0.0 0.0 0.0 1 0.0 0.0;
   128   129  0.001120  0.025170  1.835860 0.0 0.0 0.0 0.0 0.0 1 0.0 0.0;
   130   131  0.000530  0.012970  0.000000 0.0 0.0 0.0 0.0 0.0 1 0.0 0.0;
   130   132  0.000930  0.036440  1.389500 0.0 0.0 0.0 0.0 0.0 1 0.0 0.0;
   130   238  0.000680  0.015850  1.151260 0.0 0.0 0.0 0.0 0.0 1 0.0 0.0;
   132   133  0.000010  0.003590  0.978120 0.0 0.0 0.0 0.0 0.0 1 0.0 0.0;
   132   134  0.000980  0.010350  0.000000 0.0 0.0 0.0 0.0 0.0 1 0.0 0.0;
   132   238  0.001650  0.057190  2.477400 0.0 0.0 0.0 0.0 0.0 1 0.0 0.0;
   133   134  0.001600  0.012290  0.000000 0.0 0.0 0.0 0.0 0.0 1 0.0 0.0;
   134   135  0.000720  0.003460  0.000000 0.0 0.0 0.0 0.0 0.0 1 0.0 0.0;
   135   159  0.000530  0.004560  0.763500 0.0 0.0 0.0 0.0 0.0 1 0.0 0.0;
   135   159  0.000530  0.004560  0.763500 0.0 0.0 0.0 0.0 0.0 1 0.0 0.0;
   136   137  0.003120  0.028860  0.152520 0.0 0.0 0.0 0.0 0.0 1 0.0 0.0;
   136   152  0.003120  0.028860  0.152520 0.0 0.0 0.0 0.0 0.0 1 0.0 0.0;
   136   240  0.013820  0.092680  0.110600 0.0 0.0 0.0 0.0 0.0 1 0.0 0.0;
   137   149  0.003120  0.028860  0.152520 0.0 0.0 0.0 0.0 0.0 1 0.0 0.0;
   138   148  0.003120  0.028860  0.152520 0.0 0.0 0.0 0.0 0.0 1 0.0 0.0;
   138   149  0.003120  0.028860  0.152520 0.0 0.0 0.0 0.0 0.0 1 0.0 0.0;
   139   140  0.024820  0.169380  0.202320 0.0 0.0 0.0 0.0 0.0 1 0.0 0.0;
   139   153  0.014800  0.101010  0.120660 0.0 0.0 0.0 0.0 0.0 1 0.0 0.0;
   140   141  0.013820  0.092680  0.110600 0.0 0.0 0.0 0.0 0.0 1 0.0 0.0;
...
];

%%-----  OPF Data  -----%%
%% generator cost data
%	1 startup shutdown n x1 y1 ... xn yn
%	2 startup shutdown n c(n-1) ... c0
mpc.gencost = [
  2 0 0 3 0.0000100 1.290 0.000;
  2 0 0 3 0.0000100 1.290 0.000;
  2 0 0 3 0.0000100 1.290 0.000;
  2 0 0 3 0.0000100 1.290 0.000;
  2 0 0 3 0.0000100 1.290 0.000;
  2 0 0 3 0.0000100 1.290 0.000;
  2 0 0 3 0.0000100 1.290 0.000;
  2 0 0 3 0.0000100 1.290 0.000;
  2 0 0 3 0.0000100 1.290 0.000;
  2 0 0 3 0.0000100 1.290 0.000;
  2 0 0 3 0.0000100 1.290 0.000;
  2 0 0 3 0.0000100 1.290 0.000;
  2 0 0 3 0.0000100 1.290 0.000;
  2 0 0 3 0.0000100 1.290 0.000;
  2 0 0 3 0.0000100 1.290 0.000;
  2 0 0 3 0.0000100 1.290 0.000;
  2 0 0 3 0.0000100 1.290 0.000;
  2 0 0 3 0.0000100 1.290 0.000;
  2 0 0 3 0.0000100 1.290 0.000;
  2 0 0 3 0.0000100 1.290 0.000;
  2 0 0 3 0.0000100 1.290 0.000;
  2 0 0 3 0.0000100 1.290 0.000;
  2 0 0 3 0.0000100 1.290 0.000;
  2 0 0 3 0.0000100 1.290 0.000;
  2 0 0 3 0.0000100 1.290 0.000;
  2 0 0 3 0.0000100 1.290 0.000;
  2 0 0 3 0.0000100 1.290 0.000;
  2 0 0 3 0.0000100 1.290 0.000;
  2 0 0 3 0.0000100 1.290 0.000;
  2 0 0 3 0.0000100 1.290 0.000;
  2 0 0 3 0.0000100 1.290 0.000;
  2 0 0 3 0.0000100 1.290 0.000;
  2 0 0 3 0.0000100 1.290 0.000;
  2 0 0 3 0.0000100 1.290 0.000;
  2 0 0 3 0.0000100 1.290 0.000;
  2 0 0 3 0.0000100 1.290 0.000;
  2 0 0 3 0.0000100 1.290 0.000;
  2 0 0 3 0.0000100 1.290 0.000;
  2 0 0 3 0.0000100 1.290 0.000;
  2 0 0 3 0.0000100 1.290 0.000;
  2 0 0 3 0.0000100 1.290 0.000;
  2 0 0 3 0.0000100 1.290 0.000;
  2 0 0 3 0.0000100 1.290 0.000;
  2 0 0 3 0.0000100 1.290 0.000;
  2 0 0 3 0.0000100 1.290 0.000;
  2 0 0 3 0.0000100 1.290 0.000;
  2 0 0 3 0.0000100 1.290 0.000;
  2 0 0 3 0.0000100 1.290 0.000;
  2 0 0 3 0.0000100 1.290 0.000;
  2 0 0 3 0.0000100 1.290 0.000;
  2 0 0 3 0.0000100 1.290 0.000;
  2 0 0 3 0.0000100 1.290 0.000;
  2 0 0 3 0.0000100 1.290 0.000;
  2 0 0 3 0.0000100 1.290 0.000;
  2 0 0 3 0.0000100 1.290 0.000;
  2 0 0 3 0.0000100 1.290 0.000;
  2 0 0 3 0.0000100 1.290 0.000;
  2 0 0 3 0.0000100 1.290 0.000;
  2 0 0 3 0.0000100 1.290 0.000;
  2 0 0 3 0.0000100 1.290 0.000;
  2 0 0 3 0.0000100 1.290 0.000;
  2 0 0 3 0.0000100 1.290 0.000;
  2 0 0 3 0.0000100 1.290 0.000;
  2 0 0 3 0.0000100 1.290 0.000;
  2 0 0 3 0.0000100 1.290 0.000;
  2 0 0 3 0.0000100 1.290 0.000;
  2 0 0 3 0.0000100 1.290 0.000;
  2 0 0 3 0.0000100 1.290 0.000;
  2 0 0 3 0.0000100 1.290 0.000;
  2 0 0 3 0.0000100 1.290 0.000;
  2 0 0 3 0.0000100 1.290 0.000;
  2 0 0 3 0.0000100 1.290 0.000;
  2 0 0 3 0.0000100 1.290 0.000;
  2 0 0 3 0.0000100 1.290 0.000;
  2 0 0 3 0.0000100 1.290 0.000;
  2 0 0 3 0.0000100 1.290 0.000;
  2 0 0 3 0.0000100 1.290 0.000;
  2 0 0 3 0.0000100 1.290 0.000;
  2 0 0 3 0.0000100 1.290 0.000;
  2 0 0 3 0.0000100 1.290 0.000;
  2 0 0 3 0.0000100 1.290 0.000;
  2 0 0 3 0.0000100 1.290 0.000;
  2 0 0 3 0.0000100 1.290 0.000;
  2 0 0 3 0.0000100 1.290 0.000;
  2 0 0 3 0.0000100 1.290 0.000;
  2 0 0 3 0.0000100 1.290 0.000;
  2 0 0 3 0.0000100 1.290 0.000;
  2 0 0 3 0.0000100 1.290 0.000;
  2 0 0 3 0.0000100 1.290 0.000;
  2 0 0 3 0.0000100 1.290 0.000;
  2 0 0 3 0.0000100 1.290 0.000;
  2 0 0 3 0.0000100 1.290 0.000;
  2 0 0 3 0.0000100 1.290 0.000;
  2 0 0 3 0.0000100 1.290 0.000;
  2 0 0 3 0.0000100 1.290 0.000;
  2 0 0 3 0.0000100 1.290 0.000;
  2 0 0 3 0.0000100 1.290 0.000;
  2 0 0 3 0.0000100 1.290 0.000;
  2 0 0 3 0.0000100 1.290 0.000;
  2 0 0 3 0.0000100 1.290 0.000;
  2 0 0 3 0.0000100 1.290 0.000;
  2 0 0 3 0.0000100 1.290 0.000;
  2 0 0 3 0.0000100 1.290 0.000;
  2 0 0 3 0.0000100 1.290 0.000;
  2 0 0 3 0.0000100 1.290 0.000;
  2 0 0 3 0.0000100 1.290 0.000;
  2 0 0 3 0.0000100 1.290 0.000;
  2 0 0 3 0.0000100 1.290 0.000;
  2 0 0 3 0.0000100 1.290 0.000;
  2 0 0 3 0.0000100 0.010 0.000;
  2 0 0 3 0.0000100 0.010 0.000;
  2 0 0 3 0.0000100 0.010 0.000;
  2 0 0 3 0.0000100 0.010 0.000;
  2 0 0 3 0.0000100 0.010 0.000;
  2 0 0 3 0.0000100 0.010 0.000;
  2 0 0 3 0.0000100 0.010 0.000;
  2 0 0 3 0.0000100 0.010 0.000;
  2 0 0 3 0.0000100 0.010 0.000;
  2 0 0 3 0.0000100 0.010 0.000;
  2 0 0 3 0.0000100 0.010 0.000;
  2 0 0 3 0.0000100 0.010 0.000;
  2 0 0 3 0.0000100 0.010 0.000;
  2 0 0 3 0.0000100 0.010 0.000;
  2 0 0 3 0.0000100 0.010 0.000;
  2 0 0 3 0.0000100 0.010 0.000;
  2 0 0 3 0.0000100 0.010 0.000;
  2 0 0 3 0.0000100 0.010 0.000;
  2 0 0 3 0.0000100 0.010 0.000;
  2 0 0 3 0.0000100 0.010 0.000;
  2 0 0 3 0.0000100 0.010 0.000;
  2 0 0 3 0.0000100 0.010 0.000;
  2 0 0 3 0.0000100 0.010 0.000;
  2 0 0 3 0.0000100 0.010 0.000;
  2 0 0 3 0.0000100 0.010 0.000;
  2 0 0 3 0.0000100 0.010 0.000;
  2 0 0 3 0.0000100 0.010 0.000;
  2 0 0 3 0.0000100 0.010 0.000;
  2 0 0 3 0.0000100 0.010 0.000;
  2 0 0 3 0.0000100 0.010 0.000;
  2 0 0 3 0.0000100 0.010 0.000;
  2 0 0 3 0.0000100 0.010 0.000;
  2 0 0 3 0.0000100 0.010 0.000;
  2 0 0 3 0.0000100 0.010 0.000;
  2 0 0 3 0.0000100 0.010 0.000;
  2 0 0 3 0.0000100 0.010 0.000;
  2 0 0 3 0.0000100 0.010 0.000;
];

%% generator unit type (see GENTYPES)
% use WT, PV, HY, ST, CT, ST for corresponding GENFUELS
% WT and PV will use WECC dynamics; the others will use Gov/Exc/PSS dynamics
mpc.gentype = {
  'HY';
  'HY';
  'HY';
  'HY';
  'HY';
  'HY';
  'HY';
  'HY';
  'HY';
  'HY';
  'HY';
  'HY';
  'HY';
  'HY';
  'HY';
  'HY';
  'HY';
  'HY';
  'HY';
  'HY';
  'HY';
  'HY';
  'HY';
  'HY';
  'HY';
  'HY';
  'HY';
  'HY';
  'HY';
  'HY';
  'HY';
  'HY';
  'HY';
  'HY';
  'HY';
  'HY';
  'HY';
  'HY';
  'HY';
  'HY';
  'HY';
  'HY';
  'HY';
  'HY';
  'HY';
  'HY';
  'HY';
  'HY';
  'HY';
  'HY';
  'HY';
  'HY';
  'HY';
  'HY';
  'HY';
  'HY';
  'HY';
  'HY';
  'HY';
  'HY';
  'HY';
  'HY';
  'HY';
  'HY';
  'HY';
  'HY';
  'HY';
  'HY';
  'HY';
  'HY';
  'HY';
  'HY';
  'HY';
  'HY';
  'HY';
  'HY';
  'HY';
  'HY';
  'HY';
  'HY';
  'HY';
  'HY';
  'HY';
  'HY';
  'HY';
  'HY';
  'HY';
  'HY';
  'HY';
  'HY';
  'HY';
  'HY';
  'HY';
  'HY';
  'HY';
  'HY';
  'HY';
  'HY';
  'HY';
  'HY';
  'HY';
  'HY';
  'HY';
  'HY';
  'HY';
  'HY';
  'HY';
  'HY';
  'HY';
  'PV';
  'PV';
  'PV';
  'PV';
  'PV';
  'PV';
  'PV';
  'PV';
  'PV';
  'PV';
  'PV';
  'PV';
  'PV';
  'PV';
  'PV';
  'PV';
  'PV';
  'PV';
  'PV';
  'PV';
  'PV';
  'PV';
  'PV';
  'PV';
  'PV';
  'PV';
  'WT';
  'WT';
  'WT';
  'WT';
  'WT';
  'WT';
  'WT';
  'WT';
  'WT';
  'WT';
  'WT';
};

%% generator fuel type (see GENFUELS); use wind, solar, hydro, nuclear, ng, coal
mpc.genfuel = {
  'hydro';
  'hydro';
  'hydro';
  'hydro';
  'hydro';
  'hydro';
  'hydro';
  'hydro';
  'hydro';
  'hydro';
  'hydro';
  'hydro';
  'hydro';
  'hydro';
  'hydro';
  'hydro';
  'hydro';
  'hydro';
  'hydro';
  'hydro';
  'hydro';
  'hydro';
  'hydro';
  'hydro';
  'hydro';
  'hydro';
  'hydro';
  'hydro';
  'hydro';
  'hydro';
  'hydro';
  'hydro';
  'hydro';
  'hydro';
  'hydro';
  'hydro';
  'hydro';
  'hydro';
  'hydro';
  'hydro';
  'hydro';
  'hydro';
  'hydro';
  'hydro';
  'hydro';
  'hydro';
  'hydro';
  'hydro';
  'hydro';
  'hydro';
  'hydro';
  'hydro';
  'hydro';
  'hydro';
  'hydro';
  'hydro';
  'hydro';
  'hydro';
  'hydro';
  'hydro';
  'hydro';
  'hydro';
  'hydro';
  'hydro';
  'hydro';
  'hydro';
  'hydro';
...